Circuit: *Jul 22, 2013

Fatal Error: No analysis request found.
